&nhyd_model
    config_init_case = 7
    config_start_time = '2024-04-15_00:00:00'
    config_stop_time = '2024-04-15_00:00:00'
    config_theta_adv_order = 3
    config_coef_3rd_order = 0.25
    config_interface_projection = 'linear_interpolation'
/
&dimensions
    config_nvertlevels   = 1
    config_nsoillevels   = 1
    config_nfglevels     = 1
    config_nfgsoillevels = 1
    config_nsoilcat      = 16
    config_nvegopt       = 2
/
&data_sources
    config_geog_data_path = '/scratch3/BMC/wrfruc/mpas/WPS_GEOG/'
    config_met_prefix = 'FILE'
    config_sfc_prefix = 'SST'
    config_fg_interval = 21600
    config_landuse_data = 'MODIFIED_IGBP_MODIS_NOAH_15s'
    config_topo_data    = 'GMTED2010'
    config_vegfrac_data = 'MODIS'
    config_albedo_data  = 'MODIS'
    config_maxsnowalbedo_data = 'MODIS'
    config_lai_data           = 'MODIS'
    config_supersample_factor = 3
    config_30s_supersample_factor = 1
    config_use_spechumd = false
    config_soilcat_data = 'BNU'
/
&vertical_grid
    config_ztop = 25878.712
    config_nsmterrain = 1
    config_smooth_surfaces = true
    config_dzmin = 0.3
    config_nsm = 30
    config_tc_vertical_grid = false
    config_blend_bdy_terrain = false
    config_specified_zeta_levels = 'L60.txt'
/
&interpolation_control
    config_extrap_airtemp = 'lapse-rate'
/
&preproc_stages
    config_static_interp = true
    config_native_gwd_static = true
    config_vertical_grid = false
    config_met_interp = false
    config_input_sst = false
    config_frac_seaice = true
/
&io
    config_pio_num_iotasks = 0
    config_pio_stride = 1
/
&decomposition
    config_block_decomp_file_prefix = 'south3.5km.graph.info.part.'
/
